
**** 12/04/14 12:51:31 ****** PSpice Lite (October 2012) ****** ID# 10813 ****

 ** Profile: "SCHEMATIC1-Transient"  [ C:\Users\Calvin\Desktop\fet\FET Project\fet project-pspicefiles\schematic1\transient.sim ] 


 ****     CIRCUIT DESCRIPTION


******************************************************************************




** Creating circuit file "Transient.cir" 
** WARNING: THIS AUTOMATICALLY GENERATED FILE MAY BE OVERWRITTEN BY SUBSEQUENT SIMULATIONS

*Libraries: 
* Profile Libraries :
* Local Libraries :
* From [PSPICE NETLIST] section of C:\Users\Calvin\AppData\Roaming\SPB_16.6\cdssetup\OrCAD_PSpice/16.6.0/PSpice.ini file:
.lib "nomd.lib" 

*Analysis directives: 
.TRAN  0 3m 0 
.OPTIONS ADVCONV
.PROBE64 V(alias(*)) I(alias(*)) W(alias(*)) D(alias(*)) NOISE(alias(*)) 
.INC "..\SCHEMATIC1.net" 



**** INCLUDING SCHEMATIC1.net ****
* source FET PROJECT
X_Q1         N11810 0 N09521 N09521 awbvn2222 PARAMS:                          
+                      
C_C1         N09521 N11203 1 TC=0
V_Vin         N09235 0  AC 1
+SIN 1 1mV 1kHz 0 0 0
R_Rs         N09235 N11203  0.1k TC=0,0 
R_RL         0 N11174  5674 TC=0,0 
R_RD         N11810 N09466  1000 TC=0,0 
R_RSS         N09543 N09521  5000 TC=0,0 
C_C2         N11174 N11810 1 TC=0
V_V1         0 N09543 10Vdc
V_V2         0 N09466 -10Vdc

**** RESUMING Transient.cir ****
.END

**** 12/04/14 12:51:31 ****** PSpice Lite (October 2012) ****** ID# 10813 ****

 ** Profile: "SCHEMATIC1-Transient"  [ C:\Users\Calvin\Desktop\fet\FET Project\fet project-pspicefiles\schematic1\transient.sim ] 


 ****     MOSFET MODEL PARAMETERS


******************************************************************************




               X_Q1.model14    
               NMOS            
       LEVEL    2            
           L  100.000000E-06 
           W  100.000000E-06 
         VTO    2.6          
          KP     .12         
       GAMMA    0            
         PHI     .7          
      LAMBDA    1.000000E-03 
          RS    1            
          IS   10.000000E-15 
          JS    0            
          PB    1            
        PBSW    1            
         CBD  100.000000E-12 
          CJ    0            
        CJSW    0            
        CGSO    5.500000E-06 
        CGDO  500.000000E-09 
        CGBO    0            
         TOX  100.000000E-09 
          XJ    0            
       UCRIT   10.000000E+03 
      DIOMOD    1            
         VFB    0            
        LETA    0            
        WETA    0            
          U0    0            
        TEMP    0            
         VDD    5            
       XPART    0            


**** 12/04/14 12:51:31 ****** PSpice Lite (October 2012) ****** ID# 10813 ****

 ** Profile: "SCHEMATIC1-Transient"  [ C:\Users\Calvin\Desktop\fet\FET Project\fet project-pspicefiles\schematic1\transient.sim ] 


 ****     INITIAL TRANSIENT SOLUTION       TEMPERATURE =   27.000 DEG C


******************************************************************************



 NODE   VOLTAGE     NODE   VOLTAGE     NODE   VOLTAGE     NODE   VOLTAGE


(N09235)    1.0000 (N09466)   10.0000 (N09521)   -2.7560 (N09543)  -10.0000     

(N11174)    0.0000 (N11203)    1.0000 (N11810)    8.5512 




    VOLTAGE SOURCE CURRENTS
    NAME         CURRENT

    V_Vin        0.000E+00
    V_V1        -1.449E-03
    V_V2         1.449E-03

    TOTAL POWER DISSIPATION   2.90E-02  WATTS

Reducing minimum delta to make the circuit converge.
Reducing minimum delta to make the circuit converge.
Reducing minimum delta to make the circuit converge.
Reducing minimum delta to make the circuit converge.

ERROR(ORPSIM-15138): Convergence problem in transient analysis at Time =  600.3E-09.
         Time step =  545.7E-21, minimum allowable step size =  1.000E-18

  These voltages failed to converge:

    V(N11174)                 =   420.90uV  \   358.21uV

  These supply currents failed to converge:

    I(V_Vin)                  =    3.656uA  \    2.950uA



  Last node voltages tried were:

 NODE   VOLTAGE     NODE   VOLTAGE     NODE   VOLTAGE     NODE   VOLTAGE


(N09235)    1.0000 (N09466)   10.0000 (N09521)   -2.7556 (N09543)  -10.0000     

(N11174) 420.9E-06 (N11203)    1.0004 (N11810)    8.5516 


**** Interrupt ****
