
**** 12/01/14 23:26:43 ****** PSpice Lite (October 2012) ****** ID# 10813 ****

 ** Profile: "SCHEMATIC1-DC Parameters"  [ C:\Users\Calvin\Desktop\Electronics and Circuits\Electronics\FET Project\fet project-pspic


 ****     CIRCUIT DESCRIPTION


******************************************************************************




** Creating circuit file "DC Parameters.cir" 
** WARNING: THIS AUTOMATICALLY GENERATED FILE MAY BE OVERWRITTEN BY SUBSEQUENT SIMULATIONS

*Libraries: 
* Profile Libraries :
* Local Libraries :
* From [PSPICE NETLIST] section of C:\Users\Calvin\AppData\Roaming\SPB_16.6\cdssetup\OrCAD_PSpice/16.6.0/PSpice.ini file:
.lib "nomd.lib" 

*Analysis directives: 
.TRAN  0 1000ns 0 
.OPTIONS ADVCONV
.PROBE64 V(alias(*)) I(alias(*)) W(alias(*)) D(alias(*)) NOISE(alias(*)) 
.INC "..\SCHEMATIC1.net" 



**** INCLUDING SCHEMATIC1.net ****
* source FET PROJECT
X_Q1         N00133 0 N00137 0 awbvn2222 PARAMS:                               
+                 
R_RSS         N002881 N00137  3k TC=0,0 
R_RD         N003061 N00133  5k TC=0,0 
V_V1         N002881 0 DC -10V AC 0 0
V_V2         N003061 0 DC 10V AC 0 0
C_C1         N00137 N00487 2F TC=0
C_C2         0 N00133 2F TC=0
R_Rs         0 N00487 0.1k
V_V3         0 0  AC 1
+SIN 0 1mV 1kHz 0 0 0
R_R7         0 0  5674 TC=0,0 

**** RESUMING "DC Parameters.cir" ****
.END

ERROR(ORPSIM-15143): Voltage source and/or inductor loop involving V_V3. You may break the loop by adding a series resistance
